! This hub-height wind-speed file was generated by TurbSim.Farm on 04-Jan-2021 at 12:48:25.
!
! The requested statistics for this data were:
!    Mean Total Wind Speed =   10.000 m/s
!
!
!    Time    HorSpd     WndDir    VerSpd     HorShr    VerShr    LnVShr    GstSpd
!   (sec)    (m/s)      (deg)     (m/s)       (-)       (-)       (-)      (m/s)
    0.0000    8.5119    4.6647    0.2123    0.0000    0.0000    0.0000    0.0000
    5.0000    8.4953    3.9057    0.0705    0.0000    0.0000    0.0000    0.0000
   10.0000    8.5004    2.4742   -0.1316    0.0000    0.0000    0.0000    0.0000
   15.0000    8.5373    0.6945   -0.3407    0.0000    0.0000    0.0000    0.0000
   20.0000    8.6042   -1.1135   -0.5000    0.0000    0.0000    0.0000    0.0000
   25.0000    8.6936   -2.7230   -0.5688    0.0000    0.0000    0.0000    0.0000
   30.0000    8.8018   -4.0217   -0.5343    0.0000    0.0000    0.0000    0.0000
   35.0000    8.9321   -4.9722   -0.4122    0.0000    0.0000    0.0000    0.0000
   40.0000    9.0894   -5.5556   -0.2366    0.0000    0.0000    0.0000    0.0000
   45.0000    9.2692   -5.7389   -0.0454    0.0000    0.0000    0.0000    0.0000
   50.0000    9.4498   -5.4791    0.1323    0.0000    0.0000    0.0000    0.0000
   55.0000    9.5939   -4.7510    0.2827    0.0000    0.0000    0.0000    0.0000
   60.0000    9.6612   -3.5766    0.4046    0.0000    0.0000    0.0000    0.0000
   65.0000    9.6270   -2.0415    0.5031    0.0000    0.0000    0.0000    0.0000
   70.0000    9.4964   -0.3028    0.5825    0.0000    0.0000    0.0000    0.0000
   75.0000    9.3077    1.4131    0.6429    0.0000    0.0000    0.0000    0.0000
   80.0000    9.1213    2.8381    0.6810    0.0000    0.0000    0.0000    0.0000
   85.0000    8.9995    3.7313    0.6934    0.0000    0.0000    0.0000    0.0000
   90.0000    8.9852    3.9773    0.6792    0.0000    0.0000    0.0000    0.0000
   95.0000    9.0865    3.6476    0.6407    0.0000    0.0000    0.0000    0.0000
  100.0000    9.2733    2.9642    0.5808    0.0000    0.0000    0.0000    0.0000
  105.0000    9.4887    2.1916    0.5008    0.0000    0.0000    0.0000    0.0000
  110.0000    9.6705    1.5450    0.4010    0.0000    0.0000    0.0000    0.0000
  115.0000    9.7744    1.1637    0.2838    0.0000    0.0000    0.0000    0.0000
  120.0000    9.7878    1.1297    0.1586    0.0000    0.0000    0.0000    0.0000
  125.0000    9.7280    1.4875    0.0452    0.0000    0.0000    0.0000    0.0000
  130.0000    9.6304    2.2426   -0.0288    0.0000    0.0000    0.0000    0.0000
  135.0000    9.5323    3.3389   -0.0365    0.0000    0.0000    0.0000    0.0000
  140.0000    9.4602    4.6412    0.0360    0.0000    0.0000    0.0000    0.0000
  145.0000    9.4271    5.9448    0.1797    0.0000    0.0000    0.0000    0.0000
  150.0000    9.4363    7.0225    0.3603    0.0000    0.0000    0.0000    0.0000
  155.0000    9.4891    7.6904    0.5269    0.0000    0.0000    0.0000    0.0000
  160.0000    9.5905    7.8648    0.6285    0.0000    0.0000    0.0000    0.0000
  165.0000    9.7462    7.5858    0.6333    0.0000    0.0000    0.0000    0.0000
  170.0000    9.9546    6.9903    0.5414    0.0000    0.0000    0.0000    0.0000
  175.0000   10.1985    6.2419    0.3855    0.0000    0.0000    0.0000    0.0000
  180.0000   10.4449    5.4562    0.2190    0.0000    0.0000    0.0000    0.0000
  185.0000   10.6550    4.6691    0.0950    0.0000    0.0000    0.0000    0.0000
  190.0000   10.7994    3.8629    0.0462    0.0000    0.0000    0.0000    0.0000
  195.0000   10.8701    3.0310    0.0737    0.0000    0.0000    0.0000    0.0000
  200.0000   10.8827    2.2414    0.1490    0.0000    0.0000    0.0000    0.0000
  205.0000   10.8672    1.6576    0.2277    0.0000    0.0000    0.0000    0.0000
  210.0000   10.8530    1.4876    0.2692    0.0000    0.0000    0.0000    0.0000
  215.0000   10.8569    1.8683    0.2526    0.0000    0.0000    0.0000    0.0000
  220.0000   10.8784    2.7496    0.1838    0.0000    0.0000    0.0000    0.0000
  225.0000   10.9010    3.8564    0.0903    0.0000    0.0000    0.0000    0.0000
  230.0000   10.8989    4.7638    0.0075    0.0000    0.0000    0.0000    0.0000
  235.0000   10.8489    5.0537   -0.0355    0.0000    0.0000    0.0000    0.0000
  240.0000   10.7451    4.4857   -0.0272    0.0000    0.0000    0.0000    0.0000
  245.0000   10.6056    3.1231    0.0247    0.0000    0.0000    0.0000    0.0000
  250.0000   10.4605    1.3625    0.0988    0.0000    0.0000    0.0000    0.0000
  255.0000   10.3321   -0.1852    0.1699    0.0000    0.0000    0.0000    0.0000
  260.0000   10.2262   -0.9510    0.2175    0.0000    0.0000    0.0000    0.0000
  265.0000   10.1424   -0.6780    0.2307    0.0000    0.0000    0.0000    0.0000
  270.0000   10.0854    0.4391    0.2085    0.0000    0.0000    0.0000    0.0000
  275.0000   10.0587    1.8208    0.1559    0.0000    0.0000    0.0000    0.0000
  280.0000   10.0508    2.7577    0.0807    0.0000    0.0000    0.0000    0.0000
  285.0000   10.0336    2.7290   -0.0088    0.0000    0.0000    0.0000    0.0000
  290.0000    9.9755    1.6110   -0.1045    0.0000    0.0000    0.0000    0.0000
  295.0000    9.8512   -0.3158   -0.1978    0.0000    0.0000    0.0000    0.0000
  300.0000    9.6437   -2.5268   -0.2795    0.0000    0.0000    0.0000    0.0000
  305.0000    9.3516   -4.4819   -0.3416    0.0000    0.0000    0.0000    0.0000
  310.0000    9.0036   -5.8215   -0.3785    0.0000    0.0000    0.0000    0.0000
  315.0000    8.6666   -6.4762   -0.3887    0.0000    0.0000    0.0000    0.0000
  320.0000    8.4301   -6.6709   -0.3735    0.0000    0.0000    0.0000    0.0000
  325.0000    8.3698   -6.7948   -0.3352    0.0000    0.0000    0.0000    0.0000
  330.0000    8.5120   -7.1545   -0.2749    0.0000    0.0000    0.0000    0.0000
  335.0000    8.8169   -7.7905   -0.1919    0.0000    0.0000    0.0000    0.0000
  340.0000    9.1898   -8.5248   -0.0860    0.0000    0.0000    0.0000    0.0000
  345.0000    9.5138   -9.1547    0.0382    0.0000    0.0000    0.0000    0.0000
  350.0000    9.6941   -9.5925    0.1682    0.0000    0.0000    0.0000    0.0000
  355.0000    9.6922   -9.8813    0.2839    0.0000    0.0000    0.0000    0.0000
  360.0000    9.5343  -10.1282    0.3623    0.0000    0.0000    0.0000    0.0000
  365.0000    9.2918  -10.3963    0.3860    0.0000    0.0000    0.0000    0.0000
  370.0000    9.0445  -10.6003    0.3514    0.0000    0.0000    0.0000    0.0000
  375.0000    8.8462  -10.4824    0.2726    0.0000    0.0000    0.0000    0.0000
  380.0000    8.7093   -9.7285    0.1774    0.0000    0.0000    0.0000    0.0000
  385.0000    8.6148   -8.1773    0.0973    0.0000    0.0000    0.0000    0.0000
  390.0000    8.5347   -5.9813    0.0535    0.0000    0.0000    0.0000    0.0000
  395.0000    8.4479   -3.6213    0.0482    0.0000    0.0000    0.0000    0.0000
  400.0000    8.3448   -1.7624    0.0621    0.0000    0.0000    0.0000    0.0000
  405.0000    8.2276   -0.9949    0.0637    0.0000    0.0000    0.0000    0.0000
  410.0000    8.1132   -1.5538    0.0237    0.0000    0.0000    0.0000    0.0000
  415.0000    8.0267   -3.1471   -0.0696    0.0000    0.0000    0.0000    0.0000
  420.0000    7.9835   -5.0290   -0.2027    0.0000    0.0000    0.0000    0.0000
  425.0000    7.9780   -6.3493   -0.3408    0.0000    0.0000    0.0000    0.0000
  430.0000    8.0008   -6.5828   -0.4410    0.0000    0.0000    0.0000    0.0000
  435.0000    8.0625   -5.7813   -0.4709    0.0000    0.0000    0.0000    0.0000
  440.0000    8.1925   -4.5337   -0.4227    0.0000    0.0000    0.0000    0.0000
  445.0000    8.4132   -3.6373   -0.3176    0.0000    0.0000    0.0000    0.0000
  450.0000    8.7172   -3.6206   -0.1965    0.0000    0.0000    0.0000    0.0000
  455.0000    9.0628   -4.4394   -0.1031    0.0000    0.0000    0.0000    0.0000
  460.0000    9.3796   -5.5475   -0.0654    0.0000    0.0000    0.0000    0.0000
  465.0000    9.5850   -6.2202   -0.0838    0.0000    0.0000    0.0000    0.0000
  470.0000    9.6220   -5.8699   -0.1329    0.0000    0.0000    0.0000    0.0000
  475.0000    9.5025   -4.2422   -0.1728    0.0000    0.0000    0.0000    0.0000
  480.0000    9.3179   -1.5427   -0.1685    0.0000    0.0000    0.0000    0.0000
  485.0000    9.1984    1.5131   -0.1057    0.0000    0.0000    0.0000    0.0000
  490.0000    9.2470    3.9241    0.0026    0.0000    0.0000    0.0000    0.0000
  495.0000    9.5004    4.9574    0.1218    0.0000    0.0000    0.0000    0.0000
  500.0000    9.9314    4.5971    0.2104    0.0000    0.0000    0.0000    0.0000
  505.0000   10.4595    3.4499    0.2375    0.0000    0.0000    0.0000    0.0000
  510.0000   10.9640    2.2674    0.1961    0.0000    0.0000    0.0000    0.0000
  515.0000   11.3171    1.5494    0.1049    0.0000    0.0000    0.0000    0.0000
  520.0000   11.4304    1.4304    0.0001    0.0000    0.0000    0.0000    0.0000
  525.0000   11.2853    1.7589   -0.0794    0.0000    0.0000    0.0000    0.0000
  530.0000   10.9307    2.2401   -0.1074    0.0000    0.0000    0.0000    0.0000
  535.0000   10.4592    2.5968   -0.0789    0.0000    0.0000    0.0000    0.0000
  540.0000    9.9761    2.7253   -0.0101    0.0000    0.0000    0.0000    0.0000
  545.0000    9.5731    2.7708    0.0699    0.0000    0.0000    0.0000    0.0000
  550.0000    9.3128    3.0284    0.1314    0.0000    0.0000    0.0000    0.0000
  555.0000    9.2246    3.6784    0.1541    0.0000    0.0000    0.0000    0.0000
  560.0000    9.3091    4.5512    0.1320    0.0000    0.0000    0.0000    0.0000
  565.0000    9.5408    5.1544    0.0711    0.0000    0.0000    0.0000    0.0000
  570.0000    9.8750    4.9675   -0.0162    0.0000    0.0000    0.0000    0.0000
  575.0000   10.2602    3.7718   -0.1182    0.0000    0.0000    0.0000    0.0000
  580.0000   10.6507    1.7958   -0.2269    0.0000    0.0000    0.0000    0.0000
  585.0000   11.0029   -0.3766   -0.3378    0.0000    0.0000    0.0000    0.0000
  590.0000   11.2709   -2.0539   -0.4457    0.0000    0.0000    0.0000    0.0000
  595.0000   11.4161   -2.7089   -0.5414    0.0000    0.0000    0.0000    0.0000
  600.0000   11.4291   -2.1634   -0.6112    0.0000    0.0000    0.0000    0.0000
  605.0000   11.3340   -0.6532   -0.6403    0.0000    0.0000    0.0000    0.0000
  610.0000   11.1655    1.2437   -0.6196    0.0000    0.0000    0.0000    0.0000
  615.0000   10.9407    2.8269   -0.5510    0.0000    0.0000    0.0000    0.0000
  620.0000   10.6572    3.5700   -0.4498    0.0000    0.0000    0.0000    0.0000
  625.0000   10.3170    3.3323   -0.3411    0.0000    0.0000    0.0000    0.0000
  630.0000    9.9460    2.3907   -0.2507    0.0000    0.0000    0.0000    0.0000
  635.0000    9.5932    1.2943   -0.1962    0.0000    0.0000    0.0000    0.0000
  640.0000    9.3171    0.5896   -0.1794    0.0000    0.0000    0.0000    0.0000
  645.0000    9.1697    0.5168   -0.1862    0.0000    0.0000    0.0000    0.0000
  650.0000    9.1777    0.8632   -0.1926    0.0000    0.0000    0.0000    0.0000
  655.0000    9.3224    1.1230   -0.1747    0.0000    0.0000    0.0000    0.0000
  660.0000    9.5396    0.8619   -0.1184    0.0000    0.0000    0.0000    0.0000
  665.0000    9.7453   -0.0189   -0.0254    0.0000    0.0000    0.0000    0.0000
  670.0000    9.8727   -1.2774    0.0886    0.0000    0.0000    0.0000    0.0000
  675.0000    9.9005   -2.4923    0.2000    0.0000    0.0000    0.0000    0.0000
  680.0000    9.8625   -3.2662    0.2857    0.0000    0.0000    0.0000    0.0000
  685.0000    9.8366   -3.4151    0.3301    0.0000    0.0000    0.0000    0.0000
  690.0000    9.9099   -3.0903    0.3272    0.0000    0.0000    0.0000    0.0000
  695.0000   10.1308   -2.7192    0.2792    0.0000    0.0000    0.0000    0.0000
  700.0000   10.4763   -2.7388    0.1930    0.0000    0.0000    0.0000    0.0000
  705.0000   10.8569   -3.3245    0.0780    0.0000    0.0000    0.0000    0.0000
  710.0000   11.1556   -4.3321   -0.0543    0.0000    0.0000    0.0000    0.0000
  715.0000   11.2794   -5.4240   -0.1876    0.0000    0.0000    0.0000    0.0000
  720.0000   11.2007   -6.2277   -0.2998    0.0000    0.0000    0.0000    0.0000
  725.0000   10.9751   -6.4642   -0.3656    0.0000    0.0000    0.0000    0.0000
  730.0000   10.7210   -6.0579   -0.3634    0.0000    0.0000    0.0000    0.0000
  735.0000   10.5674   -5.2081   -0.2842    0.0000    0.0000    0.0000    0.0000
  740.0000   10.5895   -4.3180   -0.1398    0.0000    0.0000    0.0000    0.0000
  745.0000   10.7705   -3.7463    0.0376    0.0000    0.0000    0.0000    0.0000
  750.0000   11.0101   -3.5743    0.2031    0.0000    0.0000    0.0000    0.0000
  755.0000   11.1710   -3.5959    0.3143    0.0000    0.0000    0.0000    0.0000
  760.0000   11.1395   -3.4736    0.3470    0.0000    0.0000    0.0000    0.0000
  765.0000   10.8736   -2.9078    0.3045    0.0000    0.0000    0.0000    0.0000
  770.0000   10.4208   -1.7640    0.2153    0.0000    0.0000    0.0000    0.0000
  775.0000    9.8935   -0.1754    0.1193    0.0000    0.0000    0.0000    0.0000
  780.0000    9.4136    1.4227    0.0500    0.0000    0.0000    0.0000    0.0000
  785.0000    9.0602    2.4397    0.0186    0.0000    0.0000    0.0000    0.0000
  790.0000    8.8490    2.4611    0.0103    0.0000    0.0000    0.0000    0.0000
  795.0000    8.7483    1.5183   -0.0065    0.0000    0.0000    0.0000    0.0000
  800.0000    8.7067    0.0625   -0.0612    0.0000    0.0000    0.0000    0.0000
  805.0000    8.6777   -1.3011   -0.1626    0.0000    0.0000    0.0000    0.0000
  810.0000    8.6399   -2.1011   -0.2901    0.0000    0.0000    0.0000    0.0000
  815.0000    8.6042   -2.1837   -0.3993    0.0000    0.0000    0.0000    0.0000
  820.0000    8.5998   -1.7646   -0.4411    0.0000    0.0000    0.0000    0.0000
  825.0000    8.6458   -1.3281   -0.3843    0.0000    0.0000    0.0000    0.0000
  830.0000    8.7317   -1.3894   -0.2316    0.0000    0.0000    0.0000    0.0000
  835.0000    8.8219   -2.2514   -0.0204    0.0000    0.0000    0.0000    0.0000
  840.0000    8.8794   -3.9000    0.1913    0.0000    0.0000    0.0000    0.0000
  845.0000    8.8885   -6.0453    0.3495    0.0000    0.0000    0.0000    0.0000
  850.0000    8.8627   -8.2328    0.4252    0.0000    0.0000    0.0000    0.0000
  855.0000    8.8388   -9.9805    0.4243    0.0000    0.0000    0.0000    0.0000
  860.0000    8.8614  -10.9365    0.3808    0.0000    0.0000    0.0000    0.0000
  865.0000    8.9642  -11.0198    0.3380    0.0000    0.0000    0.0000    0.0000
  870.0000    9.1523  -10.4560    0.3274    0.0000    0.0000    0.0000    0.0000
  875.0000    9.3936   -9.6557    0.3555    0.0000    0.0000    0.0000    0.0000
  880.0000    9.6293   -9.0134    0.4047    0.0000    0.0000    0.0000    0.0000
  885.0000    9.8026   -8.7655    0.4465    0.0000    0.0000    0.0000    0.0000
  890.0000    9.8890   -8.9555    0.4593    0.0000    0.0000    0.0000    0.0000
  895.0000    9.9102   -9.4629    0.4412    0.0000    0.0000    0.0000    0.0000
  900.0000    9.9235  -10.0566    0.4109    0.0000    0.0000    0.0000    0.0000
  905.0000    9.9942  -10.4740    0.3966    0.0000    0.0000    0.0000    0.0000
  910.0000   10.1637  -10.5265    0.4196    0.0000    0.0000    0.0000    0.0000
  915.0000   10.4302  -10.1801    0.4816    0.0000    0.0000    0.0000    0.0000
  920.0000   10.7459   -9.5476    0.5614    0.0000    0.0000    0.0000    0.0000
  925.0000   11.0336   -8.8001    0.6255    0.0000    0.0000    0.0000    0.0000
  930.0000   11.2154   -8.0668    0.6426    0.0000    0.0000    0.0000    0.0000
  935.0000   11.2425   -7.3752    0.5994    0.0000    0.0000    0.0000    0.0000
  940.0000   11.1129   -6.6330    0.5046    0.0000    0.0000    0.0000    0.0000
  945.0000   10.8704   -5.6455    0.3842    0.0000    0.0000    0.0000    0.0000
  950.0000   10.5878   -4.1722    0.2677    0.0000    0.0000    0.0000    0.0000
  955.0000   10.3412   -2.0334    0.1752    0.0000    0.0000    0.0000    0.0000
  960.0000   10.1859    0.7630    0.1098    0.0000    0.0000    0.0000    0.0000
  965.0000   10.1383    3.9586    0.0605    0.0000    0.0000    0.0000    0.0000
  970.0000   10.1690    7.1122    0.0115    0.0000    0.0000    0.0000    0.0000
  975.0000   10.2158    9.7596   -0.0473    0.0000    0.0000    0.0000    0.0000
  980.0000   10.2122   11.5473   -0.1147    0.0000    0.0000    0.0000    0.0000
  985.0000   10.1201   12.2827   -0.1795    0.0000    0.0000    0.0000    0.0000
  990.0000    9.9486   11.9396   -0.2270    0.0000    0.0000    0.0000    0.0000
  995.0000    9.7502   10.6688   -0.2465    0.0000    0.0000    0.0000    0.0000
 1000.0000    9.5968    8.8046   -0.2352    0.0000    0.0000    0.0000    0.0000
 1005.0000    9.5484    6.8067   -0.1971    0.0000    0.0000    0.0000    0.0000
 1010.0000    9.6328    5.1024   -0.1386    0.0000    0.0000    0.0000    0.0000
 1015.0000    9.8447    3.9137   -0.0655    0.0000    0.0000    0.0000    0.0000
 1020.0000   10.1595    3.1970    0.0168    0.0000    0.0000    0.0000    0.0000
 1025.0000   10.5475    2.7275    0.0993    0.0000    0.0000    0.0000    0.0000
 1030.0000   10.9831    2.2513    0.1658    0.0000    0.0000    0.0000    0.0000
 1035.0000   11.4456    1.6111    0.1937    0.0000    0.0000    0.0000    0.0000
 1040.0000   11.9122    0.7982    0.1623    0.0000    0.0000    0.0000    0.0000
 1045.0000   12.3481   -0.0742    0.0641    0.0000    0.0000    0.0000    0.0000
 1050.0000   12.7004   -0.8480   -0.0856    0.0000    0.0000    0.0000    0.0000
 1055.0000   12.9045   -1.4025   -0.2479    0.0000    0.0000    0.0000    0.0000
 1060.0000   12.9048   -1.7040   -0.3720    0.0000    0.0000    0.0000    0.0000
 1065.0000   12.6799   -1.8144   -0.4152    0.0000    0.0000    0.0000    0.0000
 1070.0000   12.2611   -1.8696   -0.3626    0.0000    0.0000    0.0000    0.0000
 1075.0000   11.7341   -2.0349   -0.2366    0.0000    0.0000    0.0000    0.0000
 1080.0000   11.2186   -2.4337   -0.0888    0.0000    0.0000    0.0000    0.0000
 1085.0000   10.8311   -3.0590    0.0215    0.0000    0.0000    0.0000    0.0000
 1090.0000   10.6433   -3.7256    0.0545    0.0000    0.0000    0.0000    0.0000
 1095.0000   10.6532   -4.1383    0.0081    0.0000    0.0000    0.0000    0.0000
 1100.0000   10.7852   -4.0539   -0.0818    0.0000    0.0000    0.0000    0.0000
 1105.0000   10.9224   -3.3999   -0.1599    0.0000    0.0000    0.0000    0.0000
 1110.0000   10.9545   -2.2775   -0.1802    0.0000    0.0000    0.0000    0.0000
 1115.0000   10.8211   -0.9072   -0.1296    0.0000    0.0000    0.0000    0.0000
 1120.0000   10.5333    0.4166   -0.0345    0.0000    0.0000    0.0000    0.0000
 1125.0000   10.1658    1.3626    0.0532    0.0000    0.0000    0.0000    0.0000
 1130.0000    9.8243    1.6369    0.0851    0.0000    0.0000    0.0000    0.0000
 1135.0000    9.6017    1.1135    0.0428    0.0000    0.0000    0.0000    0.0000
 1140.0000    9.5381   -0.0595   -0.0501    0.0000    0.0000    0.0000    0.0000
 1145.0000    9.6016   -1.5090   -0.1390    0.0000    0.0000    0.0000    0.0000
 1150.0000    9.7002   -2.8301   -0.1671    0.0000    0.0000    0.0000    0.0000
 1155.0000    9.7255   -3.7414   -0.1066    0.0000    0.0000    0.0000    0.0000
 1160.0000    9.6057   -4.0969    0.0243    0.0000    0.0000    0.0000    0.0000
 1165.0000    9.3419   -3.8182    0.1675    0.0000    0.0000    0.0000    0.0000
 1170.0000    9.0110   -2.8497    0.2527    0.0000    0.0000    0.0000    0.0000
 1175.0000    8.7360   -1.1928    0.2328    0.0000    0.0000    0.0000    0.0000
 1180.0000    8.6378    0.9953    0.1090    0.0000    0.0000    0.0000    0.0000
 1185.0000    8.7853    3.3546   -0.0683    0.0000    0.0000    0.0000    0.0000
 1190.0000    9.1687    5.4442   -0.2220    0.0000    0.0000    0.0000    0.0000
 1195.0000    9.7056    6.9490   -0.2854    0.0000    0.0000    0.0000    0.0000
 1200.0000   10.2774    7.7676   -0.2333    0.0000    0.0000    0.0000    0.0000
 1205.0000   10.7752    7.9611   -0.0934    0.0000    0.0000    0.0000    0.0000
 1210.0000   11.1336    7.6732    0.0693    0.0000    0.0000    0.0000    0.0000
 1215.0000   11.3429    7.0831    0.1841    0.0000    0.0000    0.0000    0.0000
 1220.0000   11.4362    6.3775    0.2088    0.0000    0.0000    0.0000    0.0000
 1225.0000   11.4641    5.7100    0.1471    0.0000    0.0000    0.0000    0.0000
 1230.0000   11.4692    5.1476    0.0431    0.0000    0.0000    0.0000    0.0000
 1235.0000   11.4716    4.6373   -0.0445    0.0000    0.0000    0.0000    0.0000
 1240.0000   11.4698    4.0304   -0.0732    0.0000    0.0000    0.0000    0.0000
 1245.0000   11.4515    3.1663   -0.0367    0.0000    0.0000    0.0000    0.0000
 1250.0000   11.4082    1.9755    0.0348    0.0000    0.0000    0.0000    0.0000
 1255.0000   11.3424    0.5525    0.0939    0.0000    0.0000    0.0000    0.0000
 1260.0000   11.2635   -0.8436    0.1025    0.0000    0.0000    0.0000    0.0000
 1265.0000   11.1779   -1.8767    0.0511    0.0000    0.0000    0.0000    0.0000
 1270.0000   11.0830   -2.2802   -0.0385    0.0000    0.0000    0.0000    0.0000
 1275.0000   10.9702   -1.9894   -0.1277    0.0000    0.0000    0.0000    0.0000
 1280.0000   10.8296   -1.1872   -0.1833    0.0000    0.0000    0.0000    0.0000
 1285.0000   10.6528   -0.2365   -0.1952    0.0000    0.0000    0.0000    0.0000
 1290.0000   10.4361    0.4720   -0.1788    0.0000    0.0000    0.0000    0.0000
 1295.0000   10.1848    0.6925   -0.1632    0.0000    0.0000    0.0000    0.0000
 1300.0000    9.9159    0.4491   -0.1708    0.0000    0.0000    0.0000    0.0000
 1305.0000    9.6514    0.0554   -0.2025    0.0000    0.0000    0.0000    0.0000
 1310.0000    9.4075   -0.0027   -0.2353    0.0000    0.0000    0.0000    0.0000
 1315.0000    9.1915    0.7081   -0.2361    0.0000    0.0000    0.0000    0.0000
 1320.0000    9.0070    2.3387   -0.1805    0.0000    0.0000    0.0000    0.0000
 1325.0000    8.8586    4.6416   -0.0693    0.0000    0.0000    0.0000    0.0000
 1330.0000    8.7480    7.0314    0.0691    0.0000    0.0000    0.0000    0.0000
 1335.0000    8.6701    8.8049    0.1920    0.0000    0.0000    0.0000    0.0000
 1340.0000    8.6214    9.4153    0.2619    0.0000    0.0000    0.0000    0.0000
 1345.0000    8.6108    8.6785    0.2654    0.0000    0.0000    0.0000    0.0000
 1350.0000    8.6574    6.8418    0.2172    0.0000    0.0000    0.0000    0.0000
 1355.0000    8.7703    4.4841    0.1515    0.0000    0.0000    0.0000    0.0000
 1360.0000    8.9301    2.2680    0.1026    0.0000    0.0000    0.0000    0.0000
 1365.0000    9.0924    0.6856    0.0880    0.0000    0.0000    0.0000    0.0000
 1370.0000    9.2119   -0.0487    0.1010    0.0000    0.0000    0.0000    0.0000
 1375.0000    9.2699    0.0477    0.1186    0.0000    0.0000    0.0000    0.0000
 1380.0000    9.2869    0.8192    0.1163    0.0000    0.0000    0.0000    0.0000
 1385.0000    9.3175    2.0340    0.0840    0.0000    0.0000    0.0000    0.0000
 1390.0000    9.4289    3.4102    0.0322    0.0000    0.0000    0.0000    0.0000
 1395.0000    9.6697    4.6474   -0.0152    0.0000    0.0000    0.0000    0.0000
 1400.0000   10.0426    5.4948   -0.0353    0.0000    0.0000    0.0000    0.0000
 1405.0000   10.4920    5.8249   -0.0208    0.0000    0.0000    0.0000    0.0000
 1410.0000   10.9134    5.6563    0.0145    0.0000    0.0000    0.0000    0.0000
 1415.0000   11.1840    5.1172    0.0427    0.0000    0.0000    0.0000    0.0000
 1420.0000   11.2039    4.3939    0.0372    0.0000    0.0000    0.0000    0.0000
 1425.0000   10.9338    3.6933   -0.0124    0.0000    0.0000    0.0000    0.0000
 1430.0000   10.4149    3.2147   -0.0932    0.0000    0.0000    0.0000    0.0000
 1435.0000    9.7606    3.1025   -0.1747    0.0000    0.0000    0.0000    0.0000
 1440.0000    9.1216    3.3587   -0.2237    0.0000    0.0000    0.0000    0.0000
 1445.0000    8.6345    3.7531   -0.2199    0.0000    0.0000    0.0000    0.0000
 1450.0000    8.3756    3.8625   -0.1647    0.0000    0.0000    0.0000    0.0000
 1455.0000    8.3424    3.3158   -0.0786    0.0000    0.0000    0.0000    0.0000
 1460.0000    8.4700    2.0616    0.0104    0.0000    0.0000    0.0000    0.0000
 1465.0000    8.6690    0.4017    0.0804    0.0000    0.0000    0.0000    0.0000
 1470.0000    8.8637   -1.1808    0.1249    0.0000    0.0000    0.0000    0.0000
 1475.0000    9.0207   -2.2216    0.1518    0.0000    0.0000    0.0000    0.0000
 1480.0000    9.1554   -2.4324    0.1757    0.0000    0.0000    0.0000    0.0000
 1485.0000    9.3145   -1.8206    0.2081    0.0000    0.0000    0.0000    0.0000
 1490.0000    9.5363   -0.7218    0.2512    0.0000    0.0000    0.0000    0.0000
 1495.0000    9.8113    0.3410    0.2994    0.0000    0.0000    0.0000    0.0000
 1500.0000   10.0726    0.9148    0.3452    0.0000    0.0000    0.0000    0.0000
 1505.0000   10.2278    0.7958    0.3857    0.0000    0.0000    0.0000    0.0000
 1510.0000   10.2111    0.0405    0.4245    0.0000    0.0000    0.0000    0.0000
 1515.0000   10.0247   -1.1119    0.4670    0.0000    0.0000    0.0000    0.0000
 1520.0000    9.7473   -2.3178    0.5145    0.0000    0.0000    0.0000    0.0000
 1525.0000    9.5062   -3.2145    0.5591    0.0000    0.0000    0.0000    0.0000
 1530.0000    9.4248   -3.5542    0.5862    0.0000    0.0000    0.0000    0.0000
 1535.0000    9.5667   -3.3386    0.5833    0.0000    0.0000    0.0000    0.0000
 1540.0000    9.9014   -2.8029    0.5497    0.0000    0.0000    0.0000    0.0000
 1545.0000   10.3101   -2.2232    0.5012    0.0000    0.0000    0.0000    0.0000
 1550.0000   10.6360   -1.7413    0.4648    0.0000    0.0000    0.0000    0.0000
 1555.0000   10.7566   -1.3401    0.4655    0.0000    0.0000    0.0000    0.0000
 1560.0000   10.6421   -0.9154    0.5101    0.0000    0.0000    0.0000    0.0000
 1565.0000   10.3708   -0.3669    0.5799    0.0000    0.0000    0.0000    0.0000
 1570.0000   10.0934    0.3148    0.6354    0.0000    0.0000    0.0000    0.0000
 1575.0000    9.9624    0.9992    0.6343    0.0000    0.0000    0.0000    0.0000
 1580.0000   10.0610    1.4731    0.5538    0.0000    0.0000    0.0000    0.0000
 1585.0000   10.3661    1.6013    0.4056    0.0000    0.0000    0.0000    0.0000
 1590.0000   10.7639    1.4349    0.2348    0.0000    0.0000    0.0000    0.0000
 1595.0000   11.1067    1.1719    0.1023    0.0000    0.0000    0.0000    0.0000
 1600.0000   11.2836    1.0500    0.0574    0.0000    0.0000    0.0000    0.0000
 1605.0000   11.2723    1.2597    0.1153    0.0000    0.0000    0.0000    0.0000
 1610.0000   11.1457    1.8782    0.2490    0.0000    0.0000    0.0000    0.0000
 1615.0000   11.0315    2.8072    0.4024    0.0000    0.0000    0.0000    0.0000
 1620.0000   11.0433    3.7643    0.5158    0.0000    0.0000    0.0000    0.0000
 1625.0000   11.2202    4.4021    0.5526    0.0000    0.0000    0.0000    0.0000
 1630.0000   11.5091    4.4990    0.5142    0.0000    0.0000    0.0000    0.0000
 1635.0000   11.7947    4.0520    0.4351    0.0000    0.0000    0.0000    0.0000
 1640.0000   11.9579    3.2207    0.3628    0.0000    0.0000    0.0000    0.0000
 1645.0000   11.9317    2.2235    0.3329    0.0000    0.0000    0.0000    0.0000
 1650.0000   11.7291    1.2695    0.3529    0.0000    0.0000    0.0000    0.0000
 1655.0000   11.4317    0.5243    0.4025    0.0000    0.0000    0.0000    0.0000
 1660.0000   11.1444    0.0771    0.4485    0.0000    0.0000    0.0000    0.0000
 1665.0000   10.9420   -0.0927    0.4652    0.0000    0.0000    0.0000    0.0000
 1670.0000   10.8325   -0.1115    0.4490    0.0000    0.0000    0.0000    0.0000
 1675.0000   10.7581   -0.1514    0.4172    0.0000    0.0000    0.0000    0.0000
 1680.0000   10.6313   -0.3533    0.3953    0.0000    0.0000    0.0000    0.0000
 1685.0000   10.3872   -0.7869    0.3982    0.0000    0.0000    0.0000    0.0000
 1690.0000   10.0227   -1.4467    0.4187    0.0000    0.0000    0.0000    0.0000
 1695.0000    9.6028   -2.2563    0.4299    0.0000    0.0000    0.0000    0.0000
 1700.0000    9.2301   -3.0755    0.4012    0.0000    0.0000    0.0000    0.0000
 1705.0000    8.9955   -3.7396    0.3180    0.0000    0.0000    0.0000    0.0000
 1710.0000    8.9362   -4.1405    0.1937    0.0000    0.0000    0.0000    0.0000
 1715.0000    9.0217   -4.2956    0.0666    0.0000    0.0000    0.0000    0.0000
 1720.0000    9.1732   -4.3326   -0.0179    0.0000    0.0000    0.0000    0.0000
 1725.0000    9.3056   -4.4097   -0.0304    0.0000    0.0000    0.0000    0.0000
 1730.0000    9.3708   -4.6395    0.0271    0.0000    0.0000    0.0000    0.0000
 1735.0000    9.3791   -5.0459    0.1221    0.0000    0.0000    0.0000    0.0000
 1740.0000    9.3902   -5.5455    0.2088    0.0000    0.0000    0.0000    0.0000
 1745.0000    9.4782   -5.9658    0.2531    0.0000    0.0000    0.0000    0.0000
 1750.0000    9.6919   -6.1189    0.2508    0.0000    0.0000    0.0000    0.0000
 1755.0000   10.0306   -5.9044    0.2288    0.0000    0.0000    0.0000    0.0000
 1760.0000   10.4462   -5.3626    0.2284    0.0000    0.0000    0.0000    0.0000
 1765.0000   10.8684   -4.6436    0.2795    0.0000    0.0000    0.0000    0.0000
 1770.0000   11.2355   -3.9358    0.3791    0.0000    0.0000    0.0000    0.0000
 1775.0000   11.5191   -3.4010    0.4881    0.0000    0.0000    0.0000    0.0000
 1780.0000   11.7266   -3.1291    0.5474    0.0000    0.0000    0.0000    0.0000
 1785.0000   11.8856   -3.1051    0.5075    0.0000    0.0000    0.0000    0.0000
 1790.0000   12.0170   -3.2029    0.3552    0.0000    0.0000    0.0000    0.0000
 1795.0000   12.1156   -3.2224    0.1234    0.0000    0.0000    0.0000    0.0000
 1800.0000   12.1497   -2.9624   -0.1207    0.0000    0.0000    0.0000    0.0000